Version 4
SHEET 1 1836 680
WIRE -336 -208 -432 -208
WIRE -272 -208 -336 -208
WIRE -144 -208 -192 -208
WIRE 416 -208 -144 -208
WIRE 480 -208 416 -208
WIRE 560 -208 480 -208
WIRE 560 -144 560 -208
WIRE -432 -128 -432 -208
WIRE 160 -32 112 -32
WIRE 352 -32 224 -32
WIRE 496 -32 352 -32
WIRE 416 64 416 -208
WIRE 352 80 352 -32
WIRE 384 80 352 80
WIRE 496 96 496 -32
WIRE 496 96 448 96
WIRE 576 96 496 96
WIRE 704 96 640 96
WIRE 832 96 784 96
WIRE -16 112 -304 112
WIRE 112 112 112 -32
WIRE 112 112 64 112
WIRE 160 112 112 112
WIRE 304 112 240 112
WIRE 384 112 304 112
WIRE 1232 128 928 128
WIRE -304 192 -304 112
WIRE 1232 192 1232 128
WIRE 304 224 304 112
WIRE 832 288 832 96
WIRE 928 288 928 128
WIRE 1232 288 1232 272
WIRE 1312 288 1232 288
WIRE 1616 288 1376 288
WIRE 1648 288 1616 288
WIRE 1232 320 1232 288
WIRE 1648 352 1648 288
WIRE 928 448 928 368
WIRE 1232 448 1232 400
WIRE 1232 448 928 448
WIRE 1648 448 1648 432
WIRE 1648 448 1232 448
WIRE 1648 496 1648 448
FLAG 304 288 0
FLAG 416 128 0
FLAG 560 -80 0
FLAG -432 -48 0
FLAG -304 272 0
FLAG 480 -144 0
FLAG -336 -144 0
FLAG -144 -144 0
FLAG 832 368 0
FLAG 1616 288 Vmic
FLAG 1648 496 0
SYMBOL OpAmps\\UniversalOpAmp 416 96 R0
SYMATTR InstName U2
SYMBOL res 80 96 R90
WINDOW 0 0 56 VBottom 2
WINDOW 3 32 56 VTop 2
SYMATTR InstName R6
SYMATTR Value 1.5k
SYMBOL res 256 96 R90
WINDOW 0 0 56 VBottom 2
WINDOW 3 32 56 VTop 2
SYMATTR InstName R7
SYMATTR Value 2.7k
SYMBOL cap 288 224 R0
SYMATTR InstName C4
SYMATTR Value 10n
SYMBOL cap 224 -48 R90
WINDOW 0 0 32 VBottom 2
WINDOW 3 32 32 VTop 2
SYMATTR InstName C5
SYMATTR Value 22n
SYMBOL polcap 544 -144 R0
SYMATTR InstName C6
SYMATTR Value 470µ
SYMBOL voltage -432 -144 R0
WINDOW 123 0 0 Left 0
WINDOW 39 0 0 Left 0
SYMATTR InstName V1
SYMATTR Value 3.3
SYMBOL voltage -304 176 R0
WINDOW 123 24 124 Left 2
WINDOW 39 24 152 Left 2
SYMATTR Value2 AC 1
SYMATTR SpiceLine Rser=2k
SYMATTR InstName V2
SYMATTR Value SINE(1.6 1.6 1000)
SYMBOL cap 464 -208 R0
SYMATTR InstName C10
SYMATTR Value 0.1µ
SYMBOL polcap -160 -208 R0
SYMATTR InstName C8
SYMATTR Value 47µ
SYMBOL polcap -352 -208 R0
SYMATTR InstName C12
SYMATTR Value 47µ
SYMBOL ind -176 -224 R90
WINDOW 0 5 56 VBottom 2
WINDOW 3 32 56 VTop 2
SYMATTR InstName L1
SYMATTR Value 470µ
SYMBOL polcap 576 112 R270
WINDOW 0 32 32 VTop 2
WINDOW 3 0 32 VBottom 2
SYMATTR InstName C1
SYMATTR Value 4.7µ
SYMBOL ind2 816 272 R0
SYMATTR InstName L2
SYMATTR Value 150m
SYMATTR Type ind
SYMATTR SpiceLine Rser=75
SYMBOL ind2 912 272 R0
SYMATTR InstName L3
SYMATTR Value 150m
SYMATTR Type ind
SYMATTR SpiceLine Rser=75
SYMBOL res 1632 336 R0
SYMATTR InstName R2
SYMATTR Value 1k
SYMBOL res 1216 176 R0
SYMATTR InstName R1
SYMATTR Value 10k
SYMBOL res 1216 304 R0
SYMATTR InstName R3
SYMATTR Value 1k
SYMBOL polcap 1376 272 R90
WINDOW 0 0 32 VBottom 2
WINDOW 3 32 32 VTop 2
SYMATTR InstName C2
SYMATTR Value 10µ
SYMBOL res 800 80 R90
WINDOW 0 0 56 VBottom 2
WINDOW 3 32 56 VTop 2
SYMATTR InstName R4
SYMATTR Value 0
TEXT 264 376 Center 2 ;LPF for re-construction\nTwo poles, fc = 4 kHz
TEXT -616 624 Left 2 ;;tran 50m
TEXT -624 656 Left 2 !.ac oct 100 10 20k
TEXT 416 184 Left 2 ;LMV321
TEXT -616 576 Left 2 !;.STEP param X list 220 470 1k 2k 5k 10k
TEXT -472 -384 Left 2 ;MicroLink Transmit Audio\n22-Feb-2024\nBruce MacKinnon KC1FSZ
TEXT -328 376 Left 2 ;DAC Output
TEXT 848 216 Left 2 !K1 L2 L3 1
TEXT 1024 488 Left 2 ;Potentiometer used to adjust \ngain of output (into rig microphone)
TEXT 1304 176 Left 2 ;DC block cap for \nphantom power
TEXT 1512 544 Left 2 ;Rig ground in real circuit
RECTANGLE Normal 528 336 -32 -64 2
